<?xml version="1.0" encoding="UTF-8" standalone="yes"?>
<template encoding-version="1.3">
    <description>An ingest flow representing the core Connector Framework Server behaviour:

- IDX/XML document parsing
- KeyView Extraction
- KeyView Filtering
- Metadata standardization
- IDOL Indexing
- Clean up of temp files</description>
    <groupId>c2875471-017d-1000-a034-2e90a31d0d17</groupId>
    <name>Basic Ingest Flow</name>
    <snippet>
        <connections>
            <id>0f252cb2-31c4-330f-0000-000000000000</id>
            <parentGroupId>17e33a47-4a99-3623-0000-000000000000</parentGroupId>
            <backPressureDataSizeThreshold>1 GB</backPressureDataSizeThreshold>
            <backPressureObjectThreshold>10000</backPressureObjectThreshold>
            <destination>
                <groupId>17e33a47-4a99-3623-0000-000000000000</groupId>
                <id>73dde88f-6adb-323e-0000-000000000000</id>
                <type>PROCESSOR</type>
            </destination>
            <flowFileExpiration>0 sec</flowFileExpiration>
            <labelIndex>1</labelIndex>
            <loadBalanceCompression>DO_NOT_COMPRESS</loadBalanceCompression>
            <loadBalancePartitionAttribute></loadBalancePartitionAttribute>
            <loadBalanceStatus>LOAD_BALANCE_NOT_CONFIGURED</loadBalanceStatus>
            <loadBalanceStrategy>DO_NOT_LOAD_BALANCE</loadBalanceStrategy>
            <name></name>
            <selectedRelationships>success</selectedRelationships>
            <source>
                <groupId>17e33a47-4a99-3623-0000-000000000000</groupId>
                <id>c47c6ecc-658a-38a5-0000-000000000000</id>
                <type>PROCESSOR</type>
            </source>
            <zIndex>0</zIndex>
        </connections>
        <connections>
            <id>140b5a22-c1cf-3090-0000-000000000000</id>
            <parentGroupId>17e33a47-4a99-3623-0000-000000000000</parentGroupId>
            <backPressureDataSizeThreshold>1 GB</backPressureDataSizeThreshold>
            <backPressureObjectThreshold>10000</backPressureObjectThreshold>
            <destination>
                <groupId>17e33a47-4a99-3623-0000-000000000000</groupId>
                <id>18100662-185e-3119-0000-000000000000</id>
                <type>PROCESSOR</type>
            </destination>
            <flowFileExpiration>0 sec</flowFileExpiration>
            <labelIndex>1</labelIndex>
            <loadBalanceCompression>DO_NOT_COMPRESS</loadBalanceCompression>
            <loadBalanceStatus>LOAD_BALANCE_NOT_CONFIGURED</loadBalanceStatus>
            <loadBalanceStrategy>DO_NOT_LOAD_BALANCE</loadBalanceStrategy>
            <name></name>
            <selectedRelationships>failure</selectedRelationships>
            <source>
                <groupId>17e33a47-4a99-3623-0000-000000000000</groupId>
                <id>e180ad2a-2320-306c-0000-000000000000</id>
                <type>PROCESSOR</type>
            </source>
            <zIndex>0</zIndex>
        </connections>
        <connections>
            <id>1e571014-0e18-3ebe-0000-000000000000</id>
            <parentGroupId>17e33a47-4a99-3623-0000-000000000000</parentGroupId>
            <backPressureDataSizeThreshold>1 GB</backPressureDataSizeThreshold>
            <backPressureObjectThreshold>10000</backPressureObjectThreshold>
            <destination>
                <groupId>17e33a47-4a99-3623-0000-000000000000</groupId>
                <id>c47c6ecc-658a-38a5-0000-000000000000</id>
                <type>PROCESSOR</type>
            </destination>
            <flowFileExpiration>0 sec</flowFileExpiration>
            <labelIndex>1</labelIndex>
            <loadBalanceCompression>DO_NOT_COMPRESS</loadBalanceCompression>
            <loadBalanceStatus>LOAD_BALANCE_NOT_CONFIGURED</loadBalanceStatus>
            <loadBalanceStrategy>DO_NOT_LOAD_BALANCE</loadBalanceStrategy>
            <name></name>
            <selectedRelationships>success</selectedRelationships>
            <source>
                <groupId>17e33a47-4a99-3623-0000-000000000000</groupId>
                <id>c7146eab-0c4c-33ea-0000-000000000000</id>
                <type>PROCESSOR</type>
            </source>
            <zIndex>0</zIndex>
        </connections>
        <connections>
            <id>329ae379-b395-30a7-0000-000000000000</id>
            <parentGroupId>17e33a47-4a99-3623-0000-000000000000</parentGroupId>
            <backPressureDataSizeThreshold>1 GB</backPressureDataSizeThreshold>
            <backPressureObjectThreshold>10000</backPressureObjectThreshold>
            <bends>
                <x>1293.5890942376636</x>
                <y>872.0712792125353</y>
            </bends>
            <bends>
                <x>1300.5890942376636</x>
                <y>1328.3301293101915</y>
            </bends>
            <destination>
                <groupId>17e33a47-4a99-3623-0000-000000000000</groupId>
                <id>73dde88f-6adb-323e-0000-000000000000</id>
                <type>PROCESSOR</type>
            </destination>
            <flowFileExpiration>0 sec</flowFileExpiration>
            <labelIndex>1</labelIndex>
            <loadBalanceCompression>DO_NOT_COMPRESS</loadBalanceCompression>
            <loadBalanceStatus>LOAD_BALANCE_NOT_CONFIGURED</loadBalanceStatus>
            <loadBalanceStrategy>DO_NOT_LOAD_BALANCE</loadBalanceStrategy>
            <name></name>
            <selectedRelationships>remove</selectedRelationships>
            <selectedRelationships>update</selectedRelationships>
            <source>
                <groupId>17e33a47-4a99-3623-0000-000000000000</groupId>
                <id>7c44e738-bd35-37ed-0000-000000000000</id>
                <type>PROCESSOR</type>
            </source>
            <zIndex>0</zIndex>
        </connections>
        <connections>
            <id>472a8226-3346-36c1-0000-000000000000</id>
            <parentGroupId>17e33a47-4a99-3623-0000-000000000000</parentGroupId>
            <backPressureDataSizeThreshold>1 GB</backPressureDataSizeThreshold>
            <backPressureObjectThreshold>10000</backPressureObjectThreshold>
            <destination>
                <groupId>17e33a47-4a99-3623-0000-000000000000</groupId>
                <id>18100662-185e-3119-0000-000000000000</id>
                <type>PROCESSOR</type>
            </destination>
            <flowFileExpiration>0 sec</flowFileExpiration>
            <labelIndex>1</labelIndex>
            <loadBalanceCompression>DO_NOT_COMPRESS</loadBalanceCompression>
            <loadBalanceStatus>LOAD_BALANCE_NOT_CONFIGURED</loadBalanceStatus>
            <loadBalanceStrategy>DO_NOT_LOAD_BALANCE</loadBalanceStrategy>
            <name></name>
            <selectedRelationships>unmatched</selectedRelationships>
            <source>
                <groupId>17e33a47-4a99-3623-0000-000000000000</groupId>
                <id>7c44e738-bd35-37ed-0000-000000000000</id>
                <type>PROCESSOR</type>
            </source>
            <zIndex>0</zIndex>
        </connections>
        <connections>
            <id>4835a65d-7409-3bf0-0000-000000000000</id>
            <parentGroupId>17e33a47-4a99-3623-0000-000000000000</parentGroupId>
            <backPressureDataSizeThreshold>1 GB</backPressureDataSizeThreshold>
            <backPressureObjectThreshold>10000</backPressureObjectThreshold>
            <destination>
                <groupId>17e33a47-4a99-3623-0000-000000000000</groupId>
                <id>8bff91ac-d3dc-3e0b-0000-000000000000</id>
                <type>PROCESSOR</type>
            </destination>
            <flowFileExpiration>0 sec</flowFileExpiration>
            <labelIndex>1</labelIndex>
            <loadBalanceCompression>DO_NOT_COMPRESS</loadBalanceCompression>
            <loadBalanceStatus>LOAD_BALANCE_NOT_CONFIGURED</loadBalanceStatus>
            <loadBalanceStrategy>DO_NOT_LOAD_BALANCE</loadBalanceStrategy>
            <name></name>
            <selectedRelationships>failure</selectedRelationships>
            <selectedRelationships>success</selectedRelationships>
            <source>
                <groupId>17e33a47-4a99-3623-0000-000000000000</groupId>
                <id>9d4f4dea-41bd-3aa5-0000-000000000000</id>
                <type>PROCESSOR</type>
            </source>
            <zIndex>0</zIndex>
        </connections>
        <connections>
            <id>48464824-1b88-390d-0000-000000000000</id>
            <parentGroupId>17e33a47-4a99-3623-0000-000000000000</parentGroupId>
            <backPressureDataSizeThreshold>1 GB</backPressureDataSizeThreshold>
            <backPressureObjectThreshold>10000</backPressureObjectThreshold>
            <destination>
                <groupId>66cc0640-41d6-38cc-0000-000000000000</groupId>
                <id>3fc74e12-a09c-37cf-0000-000000000000</id>
                <type>INPUT_PORT</type>
            </destination>
            <flowFileExpiration>0 sec</flowFileExpiration>
            <labelIndex>1</labelIndex>
            <loadBalanceCompression>DO_NOT_COMPRESS</loadBalanceCompression>
            <loadBalanceStatus>LOAD_BALANCE_NOT_CONFIGURED</loadBalanceStatus>
            <loadBalanceStrategy>DO_NOT_LOAD_BALANCE</loadBalanceStrategy>
            <name></name>
            <selectedRelationships>success</selectedRelationships>
            <source>
                <groupId>17e33a47-4a99-3623-0000-000000000000</groupId>
                <id>747a8685-0fdd-3bf2-0000-000000000000</id>
                <type>PROCESSOR</type>
            </source>
            <zIndex>0</zIndex>
        </connections>
        <connections>
            <id>5f7c1d76-e54a-3c10-0000-000000000000</id>
            <parentGroupId>17e33a47-4a99-3623-0000-000000000000</parentGroupId>
            <backPressureDataSizeThreshold>1 GB</backPressureDataSizeThreshold>
            <backPressureObjectThreshold>10000</backPressureObjectThreshold>
            <destination>
                <groupId>17e33a47-4a99-3623-0000-000000000000</groupId>
                <id>283a5d6e-75b0-365e-0000-000000000000</id>
                <type>PROCESSOR</type>
            </destination>
            <flowFileExpiration>0 sec</flowFileExpiration>
            <labelIndex>1</labelIndex>
            <loadBalanceCompression>DO_NOT_COMPRESS</loadBalanceCompression>
            <loadBalanceStatus>LOAD_BALANCE_NOT_CONFIGURED</loadBalanceStatus>
            <loadBalanceStrategy>DO_NOT_LOAD_BALANCE</loadBalanceStrategy>
            <name></name>
            <selectedRelationships>success</selectedRelationships>
            <source>
                <groupId>17e33a47-4a99-3623-0000-000000000000</groupId>
                <id>73dde88f-6adb-323e-0000-000000000000</id>
                <type>PROCESSOR</type>
            </source>
            <zIndex>0</zIndex>
        </connections>
        <connections>
            <id>61db2f10-d22b-3565-0000-000000000000</id>
            <parentGroupId>17e33a47-4a99-3623-0000-000000000000</parentGroupId>
            <backPressureDataSizeThreshold>1 GB</backPressureDataSizeThreshold>
            <backPressureObjectThreshold>10000</backPressureObjectThreshold>
            <destination>
                <groupId>17e33a47-4a99-3623-0000-000000000000</groupId>
                <id>747a8685-0fdd-3bf2-0000-000000000000</id>
                <type>PROCESSOR</type>
            </destination>
            <flowFileExpiration>0 sec</flowFileExpiration>
            <labelIndex>1</labelIndex>
            <loadBalanceCompression>DO_NOT_COMPRESS</loadBalanceCompression>
            <loadBalanceStatus>LOAD_BALANCE_NOT_CONFIGURED</loadBalanceStatus>
            <loadBalanceStrategy>DO_NOT_LOAD_BALANCE</loadBalanceStrategy>
            <name></name>
            <source>
                <groupId>17e33a47-4a99-3623-0000-000000000000</groupId>
                <id>4fc9994c-c094-3642-0000-000000000000</id>
                <type>INPUT_PORT</type>
            </source>
            <zIndex>0</zIndex>
        </connections>
        <connections>
            <id>677008de-87c5-3ddc-0000-000000000000</id>
            <parentGroupId>17e33a47-4a99-3623-0000-000000000000</parentGroupId>
            <backPressureDataSizeThreshold>1 GB</backPressureDataSizeThreshold>
            <backPressureObjectThreshold>10000</backPressureObjectThreshold>
            <bends>
                <x>1160.0</x>
                <y>936.0</y>
            </bends>
            <bends>
                <x>928.0</x>
                <y>792.0</y>
            </bends>
            <destination>
                <groupId>17e33a47-4a99-3623-0000-000000000000</groupId>
                <id>1c1de62b-b79e-38cd-0000-000000000000</id>
                <type>FUNNEL</type>
            </destination>
            <flowFileExpiration>0 sec</flowFileExpiration>
            <labelIndex>0</labelIndex>
            <loadBalanceCompression>DO_NOT_COMPRESS</loadBalanceCompression>
            <loadBalanceStatus>LOAD_BALANCE_NOT_CONFIGURED</loadBalanceStatus>
            <loadBalanceStrategy>DO_NOT_LOAD_BALANCE</loadBalanceStrategy>
            <name></name>
            <selectedRelationships>subfile</selectedRelationships>
            <source>
                <groupId>17e33a47-4a99-3623-0000-000000000000</groupId>
                <id>e180ad2a-2320-306c-0000-000000000000</id>
                <type>PROCESSOR</type>
            </source>
            <zIndex>0</zIndex>
        </connections>
        <connections>
            <id>7eca194f-b7dc-36c0-0000-000000000000</id>
            <parentGroupId>17e33a47-4a99-3623-0000-000000000000</parentGroupId>
            <backPressureDataSizeThreshold>1 GB</backPressureDataSizeThreshold>
            <backPressureObjectThreshold>10000</backPressureObjectThreshold>
            <destination>
                <groupId>17e33a47-4a99-3623-0000-000000000000</groupId>
                <id>18100662-185e-3119-0000-000000000000</id>
                <type>PROCESSOR</type>
            </destination>
            <flowFileExpiration>0 sec</flowFileExpiration>
            <labelIndex>1</labelIndex>
            <loadBalanceCompression>DO_NOT_COMPRESS</loadBalanceCompression>
            <loadBalanceStatus>LOAD_BALANCE_NOT_CONFIGURED</loadBalanceStatus>
            <loadBalanceStrategy>DO_NOT_LOAD_BALANCE</loadBalanceStrategy>
            <name></name>
            <source>
                <groupId>66cc0640-41d6-38cc-0000-000000000000</groupId>
                <id>5f0fe36e-a692-362b-0000-000000000000</id>
                <type>OUTPUT_PORT</type>
            </source>
            <zIndex>0</zIndex>
        </connections>
        <connections>
            <id>855ea7d5-dd35-3271-0000-000000000000</id>
            <parentGroupId>17e33a47-4a99-3623-0000-000000000000</parentGroupId>
            <backPressureDataSizeThreshold>1 GB</backPressureDataSizeThreshold>
            <backPressureObjectThreshold>10000</backPressureObjectThreshold>
            <destination>
                <groupId>17e33a47-4a99-3623-0000-000000000000</groupId>
                <id>e180ad2a-2320-306c-0000-000000000000</id>
                <type>PROCESSOR</type>
            </destination>
            <flowFileExpiration>0 sec</flowFileExpiration>
            <labelIndex>1</labelIndex>
            <loadBalanceCompression>DO_NOT_COMPRESS</loadBalanceCompression>
            <loadBalancePartitionAttribute></loadBalancePartitionAttribute>
            <loadBalanceStatus>LOAD_BALANCE_NOT_CONFIGURED</loadBalanceStatus>
            <loadBalanceStrategy>DO_NOT_LOAD_BALANCE</loadBalanceStrategy>
            <name></name>
            <prioritizers>org.apache.nifi.prioritizer.PriorityAttributePrioritizer</prioritizers>
            <source>
                <groupId>17e33a47-4a99-3623-0000-000000000000</groupId>
                <id>1c1de62b-b79e-38cd-0000-000000000000</id>
                <type>FUNNEL</type>
            </source>
            <zIndex>0</zIndex>
        </connections>
        <connections>
            <id>93c9c58c-eb32-3fb8-0000-000000000000</id>
            <parentGroupId>17e33a47-4a99-3623-0000-000000000000</parentGroupId>
            <backPressureDataSizeThreshold>2 GB</backPressureDataSizeThreshold>
            <backPressureObjectThreshold>100000</backPressureObjectThreshold>
            <destination>
                <groupId>17e33a47-4a99-3623-0000-000000000000</groupId>
                <id>ad5e4396-d801-3c75-0000-000000000000</id>
                <type>OUTPUT_PORT</type>
            </destination>
            <flowFileExpiration>0 sec</flowFileExpiration>
            <labelIndex>1</labelIndex>
            <loadBalanceCompression>DO_NOT_COMPRESS</loadBalanceCompression>
            <loadBalancePartitionAttribute></loadBalancePartitionAttribute>
            <loadBalanceStatus>LOAD_BALANCE_NOT_CONFIGURED</loadBalanceStatus>
            <loadBalanceStrategy>DO_NOT_LOAD_BALANCE</loadBalanceStrategy>
            <name></name>
            <selectedRelationships>success</selectedRelationships>
            <source>
                <groupId>17e33a47-4a99-3623-0000-000000000000</groupId>
                <id>18100662-185e-3119-0000-000000000000</id>
                <type>PROCESSOR</type>
            </source>
            <zIndex>0</zIndex>
        </connections>
        <connections>
            <id>9e15be40-2894-3576-0000-000000000000</id>
            <parentGroupId>17e33a47-4a99-3623-0000-000000000000</parentGroupId>
            <backPressureDataSizeThreshold>5 GB</backPressureDataSizeThreshold>
            <backPressureObjectThreshold>100000</backPressureObjectThreshold>
            <destination>
                <groupId>17e33a47-4a99-3623-0000-000000000000</groupId>
                <id>9d4f4dea-41bd-3aa5-0000-000000000000</id>
                <type>PROCESSOR</type>
            </destination>
            <flowFileExpiration>0 sec</flowFileExpiration>
            <labelIndex>1</labelIndex>
            <loadBalanceCompression>DO_NOT_COMPRESS</loadBalanceCompression>
            <loadBalancePartitionAttribute></loadBalancePartitionAttribute>
            <loadBalanceStatus>LOAD_BALANCE_NOT_CONFIGURED</loadBalanceStatus>
            <loadBalanceStrategy>DO_NOT_LOAD_BALANCE</loadBalanceStrategy>
            <name></name>
            <selectedRelationships>success</selectedRelationships>
            <source>
                <groupId>17e33a47-4a99-3623-0000-000000000000</groupId>
                <id>283a5d6e-75b0-365e-0000-000000000000</id>
                <type>PROCESSOR</type>
            </source>
            <zIndex>0</zIndex>
        </connections>
        <connections>
            <id>a5932a37-db87-339f-0000-000000000000</id>
            <parentGroupId>17e33a47-4a99-3623-0000-000000000000</parentGroupId>
            <backPressureDataSizeThreshold>1 GB</backPressureDataSizeThreshold>
            <backPressureObjectThreshold>10000</backPressureObjectThreshold>
            <destination>
                <groupId>17e33a47-4a99-3623-0000-000000000000</groupId>
                <id>c7146eab-0c4c-33ea-0000-000000000000</id>
                <type>PROCESSOR</type>
            </destination>
            <flowFileExpiration>0 sec</flowFileExpiration>
            <labelIndex>1</labelIndex>
            <loadBalanceCompression>DO_NOT_COMPRESS</loadBalanceCompression>
            <loadBalanceStatus>LOAD_BALANCE_NOT_CONFIGURED</loadBalanceStatus>
            <loadBalanceStrategy>DO_NOT_LOAD_BALANCE</loadBalanceStrategy>
            <name></name>
            <selectedRelationships>success</selectedRelationships>
            <source>
                <groupId>17e33a47-4a99-3623-0000-000000000000</groupId>
                <id>e180ad2a-2320-306c-0000-000000000000</id>
                <type>PROCESSOR</type>
            </source>
            <zIndex>0</zIndex>
        </connections>
        <connections>
            <id>d09f3461-3f72-367b-0000-000000000000</id>
            <parentGroupId>17e33a47-4a99-3623-0000-000000000000</parentGroupId>
            <backPressureDataSizeThreshold>1 GB</backPressureDataSizeThreshold>
            <backPressureObjectThreshold>10000</backPressureObjectThreshold>
            <destination>
                <groupId>17e33a47-4a99-3623-0000-000000000000</groupId>
                <id>7c44e738-bd35-37ed-0000-000000000000</id>
                <type>PROCESSOR</type>
            </destination>
            <flowFileExpiration>0 sec</flowFileExpiration>
            <labelIndex>1</labelIndex>
            <loadBalanceCompression>DO_NOT_COMPRESS</loadBalanceCompression>
            <loadBalanceStatus>LOAD_BALANCE_NOT_CONFIGURED</loadBalanceStatus>
            <loadBalanceStrategy>DO_NOT_LOAD_BALANCE</loadBalanceStrategy>
            <name></name>
            <source>
                <groupId>66cc0640-41d6-38cc-0000-000000000000</groupId>
                <id>d4b41ae8-5686-3bb4-0000-000000000000</id>
                <type>OUTPUT_PORT</type>
            </source>
            <zIndex>0</zIndex>
        </connections>
        <connections>
            <id>d3cbd798-ae5f-3bb3-0000-000000000000</id>
            <parentGroupId>17e33a47-4a99-3623-0000-000000000000</parentGroupId>
            <backPressureDataSizeThreshold>1 GB</backPressureDataSizeThreshold>
            <backPressureObjectThreshold>10000</backPressureObjectThreshold>
            <destination>
                <groupId>17e33a47-4a99-3623-0000-000000000000</groupId>
                <id>18100662-185e-3119-0000-000000000000</id>
                <type>PROCESSOR</type>
            </destination>
            <flowFileExpiration>0 sec</flowFileExpiration>
            <labelIndex>1</labelIndex>
            <loadBalanceCompression>DO_NOT_COMPRESS</loadBalanceCompression>
            <loadBalanceStatus>LOAD_BALANCE_NOT_CONFIGURED</loadBalanceStatus>
            <loadBalanceStrategy>DO_NOT_LOAD_BALANCE</loadBalanceStrategy>
            <name></name>
            <selectedRelationships>failure</selectedRelationships>
            <source>
                <groupId>17e33a47-4a99-3623-0000-000000000000</groupId>
                <id>73dde88f-6adb-323e-0000-000000000000</id>
                <type>PROCESSOR</type>
            </source>
            <zIndex>0</zIndex>
        </connections>
        <connections>
            <id>ee1bd081-b64a-3960-0000-000000000000</id>
            <parentGroupId>17e33a47-4a99-3623-0000-000000000000</parentGroupId>
            <backPressureDataSizeThreshold>1 GB</backPressureDataSizeThreshold>
            <backPressureObjectThreshold>10000</backPressureObjectThreshold>
            <destination>
                <groupId>17e33a47-4a99-3623-0000-000000000000</groupId>
                <id>18100662-185e-3119-0000-000000000000</id>
                <type>PROCESSOR</type>
            </destination>
            <flowFileExpiration>0 sec</flowFileExpiration>
            <labelIndex>1</labelIndex>
            <loadBalanceCompression>DO_NOT_COMPRESS</loadBalanceCompression>
            <loadBalancePartitionAttribute></loadBalancePartitionAttribute>
            <loadBalanceStatus>LOAD_BALANCE_NOT_CONFIGURED</loadBalanceStatus>
            <loadBalanceStrategy>DO_NOT_LOAD_BALANCE</loadBalanceStrategy>
            <name></name>
            <selectedRelationships>failure</selectedRelationships>
            <source>
                <groupId>17e33a47-4a99-3623-0000-000000000000</groupId>
                <id>c47c6ecc-658a-38a5-0000-000000000000</id>
                <type>PROCESSOR</type>
            </source>
            <zIndex>0</zIndex>
        </connections>
        <connections>
            <id>ee734c57-4c2e-333d-0000-000000000000</id>
            <parentGroupId>17e33a47-4a99-3623-0000-000000000000</parentGroupId>
            <backPressureDataSizeThreshold>1 GB</backPressureDataSizeThreshold>
            <backPressureObjectThreshold>10000</backPressureObjectThreshold>
            <destination>
                <groupId>17e33a47-4a99-3623-0000-000000000000</groupId>
                <id>18100662-185e-3119-0000-000000000000</id>
                <type>PROCESSOR</type>
            </destination>
            <flowFileExpiration>0 sec</flowFileExpiration>
            <labelIndex>1</labelIndex>
            <loadBalanceCompression>DO_NOT_COMPRESS</loadBalanceCompression>
            <loadBalanceStatus>LOAD_BALANCE_NOT_CONFIGURED</loadBalanceStatus>
            <loadBalanceStrategy>DO_NOT_LOAD_BALANCE</loadBalanceStrategy>
            <name></name>
            <selectedRelationships>failure</selectedRelationships>
            <source>
                <groupId>17e33a47-4a99-3623-0000-000000000000</groupId>
                <id>c7146eab-0c4c-33ea-0000-000000000000</id>
                <type>PROCESSOR</type>
            </source>
            <zIndex>0</zIndex>
        </connections>
        <connections>
            <id>f09409ae-1dda-3560-0000-000000000000</id>
            <parentGroupId>17e33a47-4a99-3623-0000-000000000000</parentGroupId>
            <backPressureDataSizeThreshold>1 GB</backPressureDataSizeThreshold>
            <backPressureObjectThreshold>10000</backPressureObjectThreshold>
            <destination>
                <groupId>17e33a47-4a99-3623-0000-000000000000</groupId>
                <id>1c1de62b-b79e-38cd-0000-000000000000</id>
                <type>FUNNEL</type>
            </destination>
            <flowFileExpiration>0 sec</flowFileExpiration>
            <labelIndex>1</labelIndex>
            <loadBalanceCompression>DO_NOT_COMPRESS</loadBalanceCompression>
            <loadBalanceStatus>LOAD_BALANCE_NOT_CONFIGURED</loadBalanceStatus>
            <loadBalanceStrategy>DO_NOT_LOAD_BALANCE</loadBalanceStrategy>
            <name></name>
            <selectedRelationships>add</selectedRelationships>
            <source>
                <groupId>17e33a47-4a99-3623-0000-000000000000</groupId>
                <id>7c44e738-bd35-37ed-0000-000000000000</id>
                <type>PROCESSOR</type>
            </source>
            <zIndex>0</zIndex>
        </connections>
        <controllerServices>
            <id>c8730a11-abfc-3e22-0000-000000000000</id>
            <parentGroupId>17e33a47-4a99-3623-0000-000000000000</parentGroupId>
            <bundle>
                <artifact>idol-nifi-framework</artifact>
                <group>idol.nifi</group>
                <version>25.2.0-nifi1</version>
            </bundle>
            <comments></comments>
            <descriptors>
                <entry>
                    <key>KeyViewDirectory</key>
                    <value>
                        <name>KeyViewDirectory</name>
                    </value>
                </entry>
                <entry>
                    <key>FileStorageDirectory</key>
                    <value>
                        <name>FileStorageDirectory</name>
                    </value>
                </entry>
            </descriptors>
            <name>KeyViewFilterService (From Basic_Ingest_Flow Template)</name>
            <persistsState>false</persistsState>
            <properties>
                <entry>
                    <key>KeyViewDirectory</key>
                    <value>${'KEYVIEW_DIRECTORY'}</value>
                </entry>
                <entry>
                    <key>FileStorageDirectory</key>
                    <value>${idol.repository.files.storage.dir}</value>
                </entry>
            </properties>
            <state>DISABLED</state>
            <type>idol.nifi.service.KeyViewFilterServiceImpl</type>
        </controllerServices>
        <controllerServices>
            <id>cd23b174-319f-3c27-0000-000000000000</id>
            <parentGroupId>17e33a47-4a99-3623-0000-000000000000</parentGroupId>
            <bundle>
                <artifact>idol-nifi-framework</artifact>
                <group>idol.nifi</group>
                <version>25.2.0-nifi1</version>
            </bundle>
            <comments></comments>
            <descriptors>
                <entry>
                    <key>DocumentRegistryDirectory</key>
                    <value>
                        <name>DocumentRegistryDirectory</name>
                    </value>
                </entry>
                <entry>
                    <key>DatabaseService</key>
                    <value>
                        <identifiesControllerService>idol.nifi.service.DatabaseService</identifiesControllerService>
                        <name>DatabaseService</name>
                    </value>
                </entry>
            </descriptors>
            <name>DocumentRegistryService (From Basic_Ingest_Flow Template)</name>
            <persistsState>false</persistsState>
            <properties>
                <entry>
                    <key>DocumentRegistryDirectory</key>
                    <value>idol_repository</value>
                </entry>
                <entry>
                    <key>DatabaseService</key>
                </entry>
            </properties>
            <state>DISABLED</state>
            <type>idol.nifi.service.DocumentRegistryServiceImpl</type>
        </controllerServices>
        <funnels>
            <id>1c1de62b-b79e-38cd-0000-000000000000</id>
            <parentGroupId>17e33a47-4a99-3623-0000-000000000000</parentGroupId>
            <position>
                <x>824.0</x>
                <y>768.0</y>
            </position>
        </funnels>
        <inputPorts>
            <id>4fc9994c-c094-3642-0000-000000000000</id>
            <parentGroupId>17e33a47-4a99-3623-0000-000000000000</parentGroupId>
            <position>
                <x>728.0</x>
                <y>0.0</y>
            </position>
            <allowRemoteAccess>true</allowRemoteAccess>
            <comments></comments>
            <concurrentlySchedulableTaskCount>1</concurrentlySchedulableTaskCount>
            <name>Input From Connector</name>
            <state>STOPPED</state>
            <transmitting>false</transmitting>
            <type>INPUT_PORT</type>
        </inputPorts>
        <outputPorts>
            <id>ad5e4396-d801-3c75-0000-000000000000</id>